data/磐安金山线收资材料/case36_Topology_Deal/case36.m
function mpc = case36
%% MATPOWER Case Format : Version 2
mpc.version = '2';
Topology_Deal;
%%-----  Power Flow Data  -----%%
%% system MVA base
mpc.baseMVA = 1;

%% bus data
%	bus_i	type	Pd	Qd	Gs	Bs	area	Vm	Va	baseKV	zone	Vmax	Vmin
% mpc.bus = readmatrix("节点数据_36_obj.xlsx","Sheet",1);
mpc.bus = [1	3	0	0	0	0	1	1	0	10	1	1.5	0.50
2	1	0	0	0	0	1	1	0	10	1	1.5	0.50
3	1	0.02382	-0.002688	0	0	1	1	0	10	1	1.5	0.50
4	1	0.036072	-0.002136	0	0	1	1	0	10	1	1.5	0.50
5	1	0	0	0	0	1	1	0	10	1	1.5	0.50
6	1	0.035312	-0.002816	0	0	1	1	0	10	1	1.5	0.50
7	1	0	0	0	0	1	1	0	10	1	1.5	0.50
8	1	0.0116049832594953	-0.0529884987306106	0	0	1	1	0	10	1	1.5	0.50
9	1	0	0	0	0	1	1	0	10	1	1.5	0.50
10	1	0.0191861760376206	-0.00230615615810630	0	0	1	1	0	10	1	1.5	0.50
11	1	0	0	0	0	1	1	0	10	1	1.5	0.50
12	1	0	0	0	0	1	1	0	10	1	1.5	0.50
13	1	0	0	0	0	1	1	0	10	1	1.5	0.50
14	1	0	0	0	0	1	1	0	10	1	1.5	0.50
15	2	0.00425691144999263	-0.0314730230012543	0	0	1	1	0	10	1	1.5	0.50
16	1	0	0	0	0	1	1	0	10	1	1.5	0.50
17	1	0.0260609149985388	-0.00206769044912381	0	0	1	1	0	10	1	1.5	0.50
18	1	0	0	0	0	1	1	0	10	1	1.5	0.50
19	1	0	0	0	0	1	1	0	10	1	1.5	0.50
20	1	0	0	0	0	1	1	0	10	1	1.5	0.50
21	1	0	0	0	0	1	1	0	10	1	1.5	0.50
22	1	0	0	0	0	1	1	0	10	1	1.5	0.50
23	1	0	0	0	0	1	1	0	10	1	1.5	0.50
24	2	0.00433205387688673	-0.0539885687909774	0	0	1	1	0	10	1	1.5	0.50
25	1	0	0	0	0	1	1	0	10	1	1.5	0.50
26	1	0	0	0	0	1	1	0	10	1	1.5	0.50
27	1	0	0	0	0	1	1	0	10	1	1.5	0.50
28	1	0	0	0	0	1	1	0	10	1	1.5	0.50
29	1	0	0	0	0	1	1	0	10	1	1.5	0.50
30	1	0.0153679592171360	-0.00199221729515236	0	0	1	1	0	10	1	1.5	0.50
31	2	0.00440372749137907	-0.00865084119884330	0	0	1	1	0	10	1	1.5	0.50
32	1	0	0	0	0	1	1	0	10	1	1.5	0.50
33	1	0	0	0	0	1	1	0	10	1	1.5	0.50
34	1	0.0244452998230297	-0.00153740696024977	0	0	1	1	0	10	1	1.5	0.50
35	1	0	0	0	0	1	1	0	10	1	1.5	0.50
36	2	0.00466680639340211	0.00453901763658138	0	0	1	1	0	10	1	1.5	0.50];

%% generator data
%	bus	Pg	Qg	Qmax	Qmin	Vg	mBase	status	Pmax	Pmin	Pc1	Pc2	Qc1min	Qc1max	Qc2min	Qc2max	ramp_agc	ramp_10	ramp_30	ramp_q	apf
mpc.gen = [
	1	0	0	10	    -10	    1	100	    1	10	-10	    0	0	    0	    0	    0	    0	    0	    0	    0	    0	    0;
];

%% branch data
%	fbus	tbus	r	x	b	rateA	rateB	rateC	ratio	angle	status	angmin	angmax
% mpc.branch = [
%     %main line
%     1	2	main_line_r(1) main_line_x(1)  	0	0	0	0	0	0	1	-360	360;
%     2	3	main_line_r(2) main_line_x(2)	0	0	0	0	0	0	1	-360	360;
%     3	4	main_line_r(3) main_line_x(3)	0	0	0	0	0	0	1	-360	360;
%     4	5	main_line_r(4) main_line_x(4)	0	0	0	0	0	0	1	-360	360;
%     5	6	main_line_r(5) main_line_x(5)	0	0	0	0	0	0	1	-360	360;
%     6	7	main_line_r(6) main_line_x(6)	0	0	0	0	0	0	1	-360	360;
%     7	8	main_line_r(7) main_line_x(7)	0	0	0	0	0	0	1	-360	360;
%     8	9	main_line_r(8) main_line_x(8)	0	0	0	0	0	0	1	-360	360;
%     9	10	main_line_r(9) main_line_x(9)	0	0	0	0	0	0	1	-360	360;
%     10	11	main_line_r(10) main_line_x(10)	0	0	0	0	0	0	1	-360	360;
%     11	12	main_line_r(11) main_line_x(11)	0	0	0	0	0	0	1	-360	360;
%     12	13	main_line_r(12) main_line_x(12)	0	0	0	0	0	0	1	-360	360;
%     13	14	main_line_r(13) main_line_x(13)	0	0	0	0	0	0	1	-360	360;
%     14	15	main_line_r(14) main_line_x(14)	0	0	0	0	0	0	1	-360	360;
%     %sub line 1
%     2   16  sub_line_1_r(1) sub_line_1_x(1) 0	0	0	0	0	0	1	-360	360;
%     16  17  sub_line_1_r(2) sub_line_1_x(2) 0	0	0	0	0	0	1	-360	360;
%     17  18  sub_line_1_r(3) sub_line_1_x(3) 0	0	0	0	0	0	1	-360	360;
%     %sub line 2
%     8   19  sub_line_2_r(1) sub_line_2_x(1) 0	0	0	0	0	0	1	-360	360;
%     19  20  sub_line_2_r(2) sub_line_2_x(2) 0	0	0	0	0	0	1	-360	360;
%     20  21  sub_line_2_r(3) sub_line_2_x(3) 0	0	0	0	0	0	1	-360	360;
%     21  22  sub_line_2_r(4) sub_line_2_x(4) 0	0	0	0	0	0	1	-360	360;
%     22  23  sub_line_2_r(5) sub_line_2_x(5) 0	0	0	0	0	0	1	-360	360;
%     23  24  sub_line_2_r(6) sub_line_2_x(6) 0	0	0	0	0	0	1	-360	360;
%     %sub line 3
%     23  25  sub_line_3_r(1) sub_line_3_x(1) 0	0	0	0	0	0	1	-360	360;
%     25  26  sub_line_3_r(2) sub_line_3_x(2) 0	0	0	0	0	0	1	-360	360;
%     26  27  sub_line_3_r(3) sub_line_3_x(3) 0	0	0	0	0	0	1	-360	360;
%     27  28  sub_line_3_r(4) sub_line_3_x(4) 0	0	0	0	0	0	1	-360	360;
%     28  29  sub_line_3_r(5) sub_line_3_x(5) 0	0	0	0	0	0	1	-360	360;
%     29  30  sub_line_3_r(6) sub_line_3_x(6) 0	0	0	0	0	0	1	-360	360;
%     30  31  sub_line_3_r(7) sub_line_3_x(7) 0	0	0	0	0	0	1	-360	360;
%     %sub line 4
%     12  32  sub_line_4_r(1) sub_line_4_x(1) 0	0	0	0	0	0	1	-360	360;
%     32  33  sub_line_4_r(2) sub_line_4_x(2) 0	0	0	0	0	0	1	-360	360;
%     33  34  sub_line_4_r(3) sub_line_4_x(3) 0	0	0	0	0	0	1	-360	360;
%     34  35  sub_line_4_r(4) sub_line_4_x(4) 0	0	0	0	0	0	1	-360	360;
%     35  36  sub_line_4_r(5) sub_line_4_x(5) 0	0	0	0	0	0	1	-360	360;
% ];
mpc.branch = [1	2	0.0295156	0.0436204	0	0	0	0	0	0	1	-360	360
2	3	0.0652688	0.0964592	0	0	0	0	0	0	1	-360	360
3	4	0.0695741	0.1028219	0	0	0	0	0	0	1	-360	360
4	5	0.024253905	0.043338945	0	0	0	0	0	0	1	-360	360
5	6	0.0099552	0.0177888	0	0	0	0	0	0	1	-360	360
6	7	0.051423	0.091887	0	0	0	0	0	0	1	-360	360
7	8	0.0128649	0.0229881	0	0	0	0	0	0	1	-360	360
8	9	0.0110349	0.0197181	0	0	0	0	0	0	1	-360	360
9	10	0.0794616	0.1174344	0	0	0	0	0	0	1	-360	360
10	11	0.00936205	0.01383595	0	0	0	0	0	0	1	-360	360
11	12	0.03849405	0.06878445	0	0	0	0	0	0	1	-360	360
12	13	0.00937875	0.01675875	0	0	0	0	0	0	1	-360	360
13	14	0.019962555	0.035670795	0	0	0	0	0	0	1	-360	360
14	15	0.020582925	0.036779325	0	0	0	0	0	0	1	-360	360
2	16	0.0188759925	0.0337292325	0	0	0	0	0	0	1	-360	360
16	17	0.048250695	0.086218455	0	0	0	0	0	0	1	-360	360
17	18	0.00180279705	0.00322139145	0	0	0	0	0	0	1	-360	360
8	19	0.006576005	0.010549591	0	0	0	0	0	0	1	-360	360
19	20	0.0415715	0.0666913	0	0	0	0	0	0	1	-360	360
20	21	0.15177475	0.24348545	0	0	0	0	0	0	1	-360	360
21	22	0.083895	0.134589	0	0	0	0	0	0	1	-360	360
22	23	0.135979225	0.218145395	0	0	0	0	0	0	1	-360	360
23	24	0.1643966	0.26373412	0	0	0	0	0	0	1	-360	360
23	25	0.005454585	0.008750547	0	0	0	0	0	0	1	-360	360
25	26	0.00434233	0.006966206	0	0	0	0	0	0	1	-360	360
26	27	0.023265	0.037323	0	0	0	0	0	0	1	-360	360
27	28	0.0051418	0.00824876	0	0	0	0	0	0	1	-360	360
28	29	0.016655625	0.026719875	0	0	0	0	0	0	1	-360	360
29	30	0.00724035	0.01161537	0	0	0	0	0	0	1	-360	360
30	31	0.002348825	0.003768115	0	0	0	0	0	0	1	-360	360
12	32	0.005194675	0.008333585	0	0	0	0	0	0	1	-360	360
32	33	0.0065103225	0.0104442195	0	0	0	0	0	0	1	-360	360
33	34	0.0051426225	0.0082500795	0	0	0	0	0	0	1	-360	360
34	35	0.005173055	0.008298901	0	0	0	0	0	0	1	-360	360
35	36	0.016829525	0.026998855	0	0	0	0	0	0	1	-360	360];
%mpc.branch = readmatrix("线路数据.xlsx");
%%-----  OPF Data  -----%%
%% generator cost data
%	1	startup	shutdown	n	x1	y1	...	xn	yn
%	2	startup	shutdown	n	c(n-1)	...	c0
mpc.gencost = [
	2	0	0	1	0.48	0
];


